276204
  -OEChem-05292310403D

 34 35  0     0  0  0  0  0  0999 V2000
   -0.6246   -1.8108    0.7681 O   0  0  0  0  0  0  0  0  0  0  0  0
    2.0725    2.6616   -0.3327 O   0  0  0  0  0  0  0  0  0  0  0  0
   -0.6806    0.5584    0.5808 C   0  0  0  0  0  0  0  0  0  0  0  0
   -0.0054    1.6847    0.2832 C   0  0  0  0  0  0  0  0  0  0  0  0
   -2.1237    0.5052    1.0079 C   0  0  0  0  0  0  0  0  0  0  0  0
    1.4126   -0.8355    0.1546 C   0  0  0  0  0  0  0  0  0  0  0  0
    2.1142    0.3296   -0.1373 C   0  0  0  0  0  0  0  0  0  0  0  0
   -0.0108   -0.7774    0.5224 C   0  0  0  0  0  0  0  0  0  0  0  0
    1.4435    1.6382   -0.0839 C   0  0  0  0  0  0  0  0  0  0  0  0
   -3.0447    0.4687   -0.1698 C   0  0  0  0  0  0  0  0  0  0  0  0
   -0.6008    3.0678    0.2654 C   0  0  0  0  0  0  0  0  0  0  0  0
    2.0633   -2.0750    0.0991 C   0  0  0  0  0  0  0  0  0  0  0  0
    3.4697    0.2601   -0.4852 C   0  0  0  0  0  0  0  0  0  0  0  0
   -3.9687   -0.4661   -0.4644 C   0  0  0  0  0  0  0  0  0  0  0  0
    3.4129   -2.1417   -0.2478 C   0  0  0  0  0  0  0  0  0  0  0  0
    4.1154   -0.9753   -0.5396 C   0  0  0  0  0  0  0  0  0  0  0  0
   -4.8674   -0.4461   -1.6683 C   0  0  0  0  0  0  0  0  0  0  0  0
   -4.1773   -1.6460    0.4476 C   0  0  0  0  0  0  0  0  0  0  0  0
   -2.2827   -0.2977    1.7311 H   0  0  0  0  0  0  0  0  0  0  0  0
   -2.3684    1.4025    1.5909 H   0  0  0  0  0  0  0  0  0  0  0  0
   -2.9566    1.3082   -0.8590 H   0  0  0  0  0  0  0  0  0  0  0  0
   -0.4329    3.5398   -0.7090 H   0  0  0  0  0  0  0  0  0  0  0  0
   -0.1319    3.6892    1.0358 H   0  0  0  0  0  0  0  0  0  0  0  0
   -1.6785    3.0876    0.4399 H   0  0  0  0  0  0  0  0  0  0  0  0
    1.5375   -2.9996    0.3226 H   0  0  0  0  0  0  0  0  0  0  0  0
    4.0399    1.1556   -0.7178 H   0  0  0  0  0  0  0  0  0  0  0  0
    3.9155   -3.1035   -0.2901 H   0  0  0  0  0  0  0  0  0  0  0  0
    5.1661   -1.0272   -0.8097 H   0  0  0  0  0  0  0  0  0  0  0  0
   -4.6883   -1.3259   -2.2946 H   0  0  0  0  0  0  0  0  0  0  0  0
   -4.6961    0.4431   -2.2839 H   0  0  0  0  0  0  0  0  0  0  0  0
   -5.9178   -0.4422   -1.3599 H   0  0  0  0  0  0  0  0  0  0  0  0
   -3.3440   -1.8715    1.1128 H   0  0  0  0  0  0  0  0  0  0  0  0
   -5.0750   -1.4929    1.0556 H   0  0  0  0  0  0  0  0  0  0  0  0
   -4.3287   -2.5529   -0.1498 H   0  0  0  0  0  0  0  0  0  0  0  0
  1  8  2  0  0  0  0
  2  9  2  0  0  0  0
  3  4  2  0  0  0  0
  3  5  1  0  0  0  0
  3  8  1  0  0  0  0
  4  9  1  0  0  0  0
  4 11  1  0  0  0  0
  5 10  1  0  0  0  0
  5 19  1  0  0  0  0
  5 20  1  0  0  0  0
  6  7  1  0  0  0  0
  6  8  1  0  0  0  0
  6 12  2  0  0  0  0
  7  9  1  0  0  0  0
  7 13  2  0  0  0  0
 10 14  2  0  0  0  0
 10 21  1  0  0  0  0
 11 22  1  0  0  0  0
 11 23  1  0  0  0  0
 11 24  1  0  0  0  0
 12 15  1  0  0  0  0
 12 25  1  0  0  0  0
 13 16  1  0  0  0  0
 13 26  1  0  0  0  0
 14 17  1  0  0  0  0
 14 18  1  0  0  0  0
 15 16  2  0  0  0  0
 15 27  1  0  0  0  0
 16 28  1  0  0  0  0
 17 29  1  0  0  0  0
 17 30  1  0  0  0  0
 17 31  1  0  0  0  0
 18 32  1  0  0  0  0
 18 33  1  0  0  0  0
 18 34  1  0  0  0  0
M  END
> <PUBCHEM_COMPOUND_CID>
276204

> <PUBCHEM_CONFORMER_RMSD>
0.6

> <PUBCHEM_CONFORMER_DIVERSEORDER>
2
10
3
9
8
6
4
12
1
11
5
7

> <PUBCHEM_MMFF94_PARTIAL_CHARGES>
23
1 -0.57
10 -0.29
11 0.14
12 -0.15
13 -0.15
14 -0.28
15 -0.15
16 -0.15
17 0.14
18 0.14
2 -0.57
21 0.15
25 0.15
26 0.15
27 0.15
28 0.15
3 -0.12
4 -0.12
5 0.28
6 0.09
7 0.09
8 0.47
9 0.47

> <PUBCHEM_EFFECTIVE_ROTOR_COUNT>
2

> <PUBCHEM_PHARMACOPHORE_FEATURES>
5
1 1 acceptor
1 2 acceptor
3 14 17 18 hydrophobe
6 3 4 6 7 8 9 rings
6 6 7 12 13 15 16 rings

> <PUBCHEM_HEAVY_ATOM_COUNT>
18

> <PUBCHEM_ATOM_DEF_STEREO_COUNT>
0

> <PUBCHEM_ATOM_UDEF_STEREO_COUNT>
0

> <PUBCHEM_BOND_DEF_STEREO_COUNT>
0

> <PUBCHEM_BOND_UDEF_STEREO_COUNT>
0

> <PUBCHEM_ISOTOPIC_ATOM_COUNT>
0

> <PUBCHEM_COMPONENT_COUNT>
1

> <PUBCHEM_CACTVS_TAUTO_COUNT>
5

> <PUBCHEM_CONFORMER_ID>
000436EC00000002

> <PUBCHEM_MMFF94_ENERGY>
41.3621

> <PUBCHEM_FEATURE_SELFOVERLAP>
25.392

> <PUBCHEM_SHAPE_FINGERPRINT>
10062212 137 18131073706113639867
10967382 1 18338244885204384080
11471102 20 18408603682079495974
11680986 33 18266465493066818634
116883 192 18197784301569061735
11806522 49 18412265017261328824
12236239 1 17917718998303732569
12553582 1 18338246963541423986
13140716 1 18265347281578853376
14251717 144 18410854390691861110
14576447 43 18271801354308860127
14790565 3 17547015121946333697
15848700 24 18411979135743079102
16945 1 18336564754196413288
17357779 13 18261107448371915053
18186145 218 17967811652621732035
18915474 69 17988634255315771695
200 152 18343865498171803771
20645477 70 18336824299022488175
20671657 53 18413392042476041757
21029758 11 18411702067229033232
21065199 12 10663828507359670591
21267235 1 18339938042732658170
21501502 16 18048608027691043672
21634736 98 18413106181979097383
22112679 90 17774460316521646145
221357 26 18336533964013653613
221490 88 18263933309446457867
22182313 1 18048897473974178944
2334 1 17905623433837057904
23379529 103 18130517378462693926
23402539 116 18339080363691440006
23557571 272 17842842118691551246
23559900 14 18409729607962013696
2748010 2 18049178948977354304
2838139 119 15864647196655383014
2871803 45 18409164381222179855
3323516 105 18262518212369701875
46194498 28 17677331748815406661
602551 16 15410890799233903207
7364860 26 18342459300373105328
7471813 234 18131061636828692369
9709674 26 18267597810035102958

> <PUBCHEM_SHAPE_MULTIPOLES>
358.69
7.97
2.76
0.96
5.43
1.45
0.17
-4.44
2.97
-1.12
-0.17
0.87
-0.13
-0.16

> <PUBCHEM_SHAPE_SELFOVERLAP>
766.392

> <PUBCHEM_SHAPE_VOLUME>
198.9

> <PUBCHEM_COORDINATE_TYPE>
2
5
10

$$$$
