90659041
  -OEChem-05292310553D

 18 17  0     1  0  0  0  0  0999 V2000
    1.7124   -0.5147    0.1774 S   0  0  2  0  0  0  0  0  0  0  0  0
    2.1317   -0.8491   -1.2186 O   0  0  0  0  0  0  0  0  0  0  0  0
   -1.7921   -0.1999    1.4383 O   0  5  0  0  0  0  0  0  0  0  0  0
   -1.8827   -1.5598   -0.3942 O   0  0  0  0  0  0  0  0  0  0  0  0
   -1.5318    1.7962   -0.7196 N   0  3  0  0  0  0  0  0  0  0  0  0
   -0.7447    0.5318   -0.5467 C   0  0  1  0  0  0  0  0  0  0  0  0
    0.5957    0.9237    0.0670 C   0  0  0  0  0  0  0  0  0  0  0  0
   -1.5574   -0.5160    0.2360 C   0  0  0  0  0  0  0  0  0  0  0  0
    3.0689    0.3878    0.9605 C   0  0  0  0  0  0  0  0  0  0  0  0
   -0.5878    0.1605   -1.5670 H   0  0  0  0  0  0  0  0  0  0  0  0
    1.0947    1.6897   -0.5369 H   0  0  0  0  0  0  0  0  0  0  0  0
    0.4613    1.3143    1.0817 H   0  0  0  0  0  0  0  0  0  0  0  0
   -2.4328    1.6124   -1.1809 H   0  0  0  0  0  0  0  0  0  0  0  0
   -1.7340    2.2426    0.1851 H   0  0  0  0  0  0  0  0  0  0  0  0
   -1.0274    2.4807   -1.2990 H   0  0  0  0  0  0  0  0  0  0  0  0
    3.9106   -0.2961    1.0930 H   0  0  0  0  0  0  0  0  0  0  0  0
    2.7475    0.7564    1.9373 H   0  0  0  0  0  0  0  0  0  0  0  0
    3.3784    1.2227    0.3273 H   0  0  0  0  0  0  0  0  0  0  0  0
  1  2  2  0  0  0  0
  1  7  1  0  0  0  0
  1  9  1  0  0  0  0
  3  8  1  0  0  0  0
  4  8  2  0  0  0  0
  5  6  1  0  0  0  0
  5 13  1  0  0  0  0
  5 14  1  0  0  0  0
  5 15  1  0  0  0  0
  6  7  1  0  0  0  0
  6  8  1  0  0  0  0
  6 10  1  0  0  0  0
  7 11  1  0  0  0  0
  7 12  1  0  0  0  0
  9 16  1  0  0  0  0
  9 17  1  0  0  0  0
  9 18  1  0  0  0  0
M  CHG  2   3  -1   5   1
M  END
> <PUBCHEM_COMPOUND_CID>
90659041

> <PUBCHEM_CONFORMER_RMSD>
0.6

> <PUBCHEM_CONFORMER_DIVERSEORDER>
1
8
19
15
22
25
11
12
26
10
23
9
17
20
7
13
18
21
2
5
24
14
3
6
4
16

> <PUBCHEM_MMFF94_PARTIAL_CHARGES>
12
1 0.11
13 0.45
14 0.45
15 0.45
2 -0.5
3 -0.9
4 -0.9
5 -0.85
6 0.4
7 0.19
8 0.91
9 0.19

> <PUBCHEM_EFFECTIVE_ROTOR_COUNT>
3

> <PUBCHEM_PHARMACOPHORE_FEATURES>
6
1 2 acceptor
1 3 acceptor
1 4 acceptor
1 5 cation
1 5 donor
3 3 4 8 anion

> <PUBCHEM_HEAVY_ATOM_COUNT>
9

> <PUBCHEM_ATOM_DEF_STEREO_COUNT>
1

> <PUBCHEM_ATOM_UDEF_STEREO_COUNT>
1

> <PUBCHEM_BOND_DEF_STEREO_COUNT>
0

> <PUBCHEM_BOND_UDEF_STEREO_COUNT>
0

> <PUBCHEM_ISOTOPIC_ATOM_COUNT>
0

> <PUBCHEM_COMPONENT_COUNT>
1

> <PUBCHEM_CACTVS_TAUTO_COUNT>
1

> <PUBCHEM_CONFORMER_ID>
056758E100000001

> <PUBCHEM_MMFF94_ENERGY>
10.6112

> <PUBCHEM_FEATURE_SELFOVERLAP>
30.502

> <PUBCHEM_SHAPE_FINGERPRINT>
10857977 72 18340757247714515832
12897270 3 12540980762649413499
12932741 1 18201718397508026132
12932764 1 18410859832943101842
20645464 45 18272365322269419368
20653085 51 16986588642225817833
21040471 1 17827353285068533476
23235687 12 18341897432577115928
24536 1 17418087685547103186
29004967 10 18131632287921823376
3248919 1 17275097302456802610
5084963 1 18200017590453470448

> <PUBCHEM_SHAPE_MULTIPOLES>
166.48
3.8
1.4
1.12
2.15
0.24
0.11
-0.41
0.64
-0.75
-0.32
0.13
-0.11
0.47

> <PUBCHEM_SHAPE_SELFOVERLAP>
295.645

> <PUBCHEM_SHAPE_VOLUME>
109.4

> <PUBCHEM_COORDINATE_TYPE>
2
5
10

$$$$
